ieee123_VLN_Node_estado_inicial_opendss.Txt

LINE-GROUND and LINE-LINE VOLTAGES BY BUS & NODE

Bus   Node    VLN (kV)   Angle      pu     Base kV    Node-Node   VLL (kV)  Angle      pu

150 . 1       2.4018 /_    0.0         1     4.160        1-2       4.16 /_   30.0         1
   -  2       2.4018 /_ -120.0         1     4.160        2-3       4.16 /_  -90.0         1
   -  3       2.4018 /_  120.0         1     4.160        3-1       4.16 /_  150.0         1
SUP_2 1       2.4012 /_    0.0   0.99974     4.160        1-2      4.159 /_   30.0   0.99976
   -  2       2.4013 /_ -120.0    0.9998     4.160        2-3     4.1592 /_  -90.0   0.99981
   -  3       2.4013 /_  120.0   0.99982     4.160        3-1     4.1591 /_  150.0   0.99979
SUP_1 1        2.401 /_    0.0   0.99967     4.160        1-2     4.1585 /_   30.0   0.99964
   -  2       2.4009 /_ -120.0   0.99963     4.160        2-3     4.1586 /_  -90.0   0.99967
   -  3       2.4012 /_  120.0   0.99974     4.160        3-1     4.1589 /_  150.0   0.99974
SUP_3 1       2.4018 /_    0.0         1     4.160        1-2       4.16 /_   30.0         1
   -  2       2.4018 /_ -120.0         1     4.160        2-3       4.16 /_  -90.0         1
   -  3       2.4018 /_  120.0         1     4.160        3-1       4.16 /_  150.0         1
149 . 1       2.4168 /_    0.0    1.0062     4.160        1-2      4.186 /_   30.0    1.0062
   -  2       2.4168 /_ -120.0    1.0062     4.160        2-3      4.186 /_  -90.0    1.0062
   -  3       2.4168 /_  120.0    1.0062     4.160        3-1      4.186 /_  150.0    1.0062
1 ... 1       2.4094 /_   -0.2    1.0032     4.160        1-2     4.1766 /_   30.0     1.004
   -  2       2.4196 /_ -120.0    1.0074     4.160        2-3     4.1823 /_  -90.1    1.0054
   -  3       2.4069 /_  119.9    1.0021     4.160        3-1      4.174 /_  149.9    1.0034
2 ... 2       2.4191 /_ -120.0    1.0072     4.160
3 ... 3       2.4029 /_  119.9    1.0005     4.160
7 ... 1       2.4038 /_   -0.4    1.0009     4.160        1-2     4.1705 /_   30.0    1.0025
   -  2       2.4219 /_ -120.0    1.0084     4.160        2-3     4.1805 /_  -90.2    1.0049
   -  3       2.4017 /_  119.9   0.99996     4.160        3-1     4.1673 /_  149.8    1.0017
4 ... 3       2.4017 /_  119.9   0.99996     4.160
5 ... 3       2.3999 /_  119.9    0.9992     4.160
6 ... 3       2.3983 /_  119.8   0.99854     4.160
8 ... 1       2.4004 /_   -0.5   0.99945     4.160        1-2     4.1666 /_   29.9    1.0016
   -  2       2.4233 /_ -120.0     1.009     4.160        2-3     4.1793 /_  -90.2    1.0046
   -  3       2.3982 /_  119.9   0.99853     4.160        3-1     4.1629 /_  149.7    1.0007
12 .. 2       2.4226 /_ -120.0    1.0087     4.160
9 ... 1       2.3969 /_   -0.5   0.99796     4.160
13 .. 1       2.3978 /_   -0.6   0.99836     4.160        1-2     4.1627 /_   29.9    1.0006
   -  2       2.4245 /_ -119.9    1.0094     4.160        2-3     4.1776 /_  -90.3    1.0042
   -  3       2.3931 /_  119.8   0.99638     4.160        3-1      4.157 /_  149.7   0.99929
9R .. 1       2.4118 /_   -0.5    1.0042     4.160
14 .. 1       2.4078 /_   -0.5    1.0025     4.160
34 .. 3       2.3907 /_  119.8   0.99539     4.160
18 .. 1       2.3891 /_   -0.8   0.99471     4.160        1-2     4.1527 /_   29.9   0.99825
   -  2       2.4274 /_ -119.9    1.0107     4.160        2-3     4.1721 /_  -90.4    1.0029
   -  3       2.3843 /_  119.8   0.99273     4.160        3-1     4.1471 /_  149.5    0.9969
11 .. 1       2.4062 /_   -0.5    1.0019     4.160
10 .. 1        2.407 /_   -0.5    1.0022     4.160
15 .. 3       2.3897 /_  119.8   0.99499     4.160
16 .. 3       2.3874 /_  119.8     0.994     4.160
17 .. 3       2.3886 /_  119.8   0.99453     4.160
19 .. 1       2.3859 /_   -0.8   0.99339     4.160
21 .. 1       2.3878 /_   -0.9   0.99417     4.160        1-2     4.1506 /_   29.9   0.99773
   -  2       2.4275 /_ -119.9    1.0107     4.160        2-3     4.1702 /_  -90.4    1.0025
   -  3       2.3814 /_  119.8   0.99153     4.160        3-1     4.1441 /_  149.5   0.99618
20 .. 1       2.3839 /_   -0.9   0.99254     4.160
22 .. 2       2.4242 /_ -120.0    1.0093     4.160
23 .. 1       2.3868 /_   -0.9   0.99377     4.160        1-2      4.149 /_   29.9   0.99736
   -  2       2.4285 /_ -119.9    1.0111     4.160        2-3     4.1694 /_  -90.4    1.0022
   -  3       2.3787 /_  119.8   0.99038     4.160        3-1     4.1416 /_  149.5   0.99558
24 .. 3       2.3752 /_  119.7   0.98892     4.160
N1 .. 1       2.3867 /_   -0.9   0.99373     4.160        1-2     4.1489 /_   29.9   0.99734
   -  2       2.4285 /_ -119.9    1.0111     4.160        2-3     4.1693 /_  -90.4    1.0022
   -  3       2.3786 /_  119.8   0.99036     4.160        3-1     4.1415 /_  149.5   0.99556
25 .. 1       2.3852 /_   -1.0   0.99308     4.160        1-2     4.1471 /_   29.9   0.99691
   -  2       2.4296 /_ -119.9    1.0116     4.160        2-3     4.1686 /_  -90.4    1.0021
   -  3       2.3765 /_  119.8   0.98947     4.160        3-1     4.1394 /_  149.5   0.99506
25R . 1       2.4001 /_   -1.0   0.99928     4.160
   -  3       2.4062 /_  119.8    1.0018     4.160        3-1     4.1782 /_  149.4    1.0044
26 .. 1       2.3994 /_   -1.0   0.99903     4.160
   -  3        2.405 /_  119.8    1.0013     4.160        3-1      4.177 /_  149.3    1.0041
28 .. 1       2.3843 /_   -1.0   0.99271     4.160        1-2     4.1462 /_   29.9   0.99669
   -  2       2.4301 /_ -119.9    1.0118     4.160        2-3     4.1683 /_  -90.4     1.002
   -  3       2.3756 /_  119.8   0.98912     4.160        3-1     4.1386 /_  149.4   0.99485
27 .. 1       2.3986 /_   -1.0   0.99867     4.160
   -  3       2.4049 /_  119.8    1.0013     4.160        3-1     4.1767 /_  149.3     1.004
31 .. 3       2.4036 /_  119.8    1.0007     4.160
33 .. 1       2.3954 /_   -1.1   0.99735     4.160
29 .. 1       2.3839 /_   -1.0   0.99255     4.160        1-2     4.1456 /_   29.9   0.99654
   -  2       2.4305 /_ -119.9    1.0119     4.160        2-3      4.168 /_  -90.5    1.0019
   -  3       2.3745 /_  119.8   0.98866     4.160        3-1     4.1376 /_  149.4   0.99461
30 .. 1       2.3845 /_   -1.0   0.99282     4.160        1-2     4.1457 /_   29.9   0.99657
   -  2       2.4304 /_ -119.9    1.0119     4.160        2-3     4.1676 /_  -90.5    1.0018
   -  3       2.3734 /_  119.8    0.9882     4.160        3-1     4.1368 /_  149.4   0.99442
250 . 1       2.3845 /_   -1.0   0.99282     4.160        1-2     4.1457 /_   29.9   0.99657
   -  2       2.4304 /_ -119.9    1.0119     4.160        2-3     4.1676 /_  -90.5    1.0018
   -  3       2.3734 /_  119.8    0.9882     4.160        3-1     4.1368 /_  149.4   0.99442
32 .. 3       2.4026 /_  119.7    1.0003     4.160
35 .. 1       2.3936 /_   -0.1   0.99659     4.160        1-2     4.1483 /_   29.9   0.99718
   -  2       2.3958 /_ -120.1   0.99749     4.160        2-3     4.1518 /_  -90.0   0.99804
   -  3       2.4012 /_  120.0   0.99976     4.160        3-1     4.1543 /_  149.9   0.99863
36 .. 1       2.3914 /_   -0.1   0.99567     4.160        1-2     4.1459 /_   29.9   0.99662
   -  2       2.3946 /_ -120.2   0.99702     4.160
40 .. 1       2.3946 /_   -0.1   0.99703     4.160        1-2     4.1496 /_   29.9    0.9975
   -  2       2.3964 /_ -120.1   0.99777     4.160        2-3     4.1526 /_  -90.0   0.99823
   -  3       2.4009 /_  120.0   0.99963     4.160        3-1     4.1546 /_  149.9   0.99869
37 .. 1       2.3895 /_   -0.1   0.99488     4.160
38 .. 2        2.393 /_ -120.2   0.99636     4.160
39 .. 2        2.392 /_ -120.2   0.99593     4.160
41 .. 3       2.3999 /_  120.0    0.9992     4.160
42 .. 1       2.3955 /_   -0.1   0.99739     4.160        1-2      4.151 /_   29.9   0.99783
   -  2       2.3971 /_ -120.1   0.99806     4.160        2-3     4.1535 /_  -90.0   0.99845
   -  3       2.4009 /_  120.0   0.99965     4.160        3-1     4.1551 /_  149.9   0.99883
43 .. 2        2.394 /_ -120.1   0.99674     4.160
44 .. 1       2.3966 /_   -0.1   0.99786     4.160        1-2     4.1525 /_   29.9   0.99819
   -  2       2.3981 /_ -120.1   0.99848     4.160        2-3     4.1547 /_  -90.0   0.99873
   -  3       2.4007 /_  120.0   0.99956     4.160        3-1     4.1557 /_  149.9   0.99898
45 .. 1       2.3954 /_   -0.1   0.99733     4.160
47 .. 1       2.3988 /_    0.0   0.99877     4.160        1-2      4.155 /_   30.0   0.99879
   -  2       2.3989 /_ -120.0   0.99881     4.160        2-3     4.1561 /_  -90.0   0.99906
   -  3       2.4005 /_  120.0   0.99948     4.160        3-1     4.1567 /_  149.9   0.99921
46 .. 1       2.3944 /_   -0.1   0.99694     4.160
48 .. 1       2.4008 /_    0.0   0.99959     4.160        1-2     4.1582 /_   30.0   0.99956
   -  2       2.4007 /_ -120.0   0.99955     4.160        2-3     4.1583 /_  -90.0    0.9996
   -  3        2.401 /_  120.0   0.99969     4.160        3-1     4.1586 /_  150.0   0.99967
49 .. 1       2.3982 /_   -0.1    0.9985     4.160        1-2     4.1532 /_   29.9   0.99838
   -  2       2.3976 /_ -120.1   0.99824     4.160        2-3     4.1546 /_  -90.0    0.9987
   -  3       2.3998 /_  119.9   0.99916     4.160        3-1     4.1551 /_  149.9   0.99883
50 .. 1       2.3981 /_   -0.1   0.99849     4.160        1-2     4.1528 /_   29.9   0.99828
   -  2       2.3976 /_ -120.0   0.99827     4.160        2-3     4.1544 /_  -90.0   0.99865
   -  3       2.3989 /_  119.9   0.99882     4.160        3-1     4.1544 /_  149.9   0.99865
51 .. 1       2.3977 /_   -0.1   0.99832     4.160        1-2     4.1525 /_   29.9    0.9982
   -  2       2.3978 /_ -120.0   0.99835     4.160        2-3     4.1544 /_  -90.0   0.99865
   -  3       2.3989 /_  119.9    0.9988     4.160        3-1     4.1543 /_  149.9   0.99862
52 .. 1        2.359 /_    0.0   0.98219     4.160        1-2     4.1147 /_   30.0   0.98912
   -  2       2.3861 /_ -120.3   0.99347     4.160        2-3     4.1379 /_  -90.0   0.99468
   -  3       2.4029 /_  120.2    1.0005     4.160        3-1     4.1281 /_  149.7   0.99232
53 .. 1       2.3596 /_    0.0   0.98246     4.160        1-2     4.1152 /_   30.0   0.98923
   -  2       2.3857 /_ -120.3   0.99332     4.160        2-3     4.1378 /_  -90.0   0.99467
   -  3        2.403 /_  120.1    1.0005     4.160        3-1     4.1282 /_  149.8   0.99237
54 .. 1       2.3604 /_    0.0   0.98279     4.160        1-2     4.1158 /_   30.0   0.98937
   -  2       2.3853 /_ -120.3   0.99313     4.160        2-3     4.1377 /_  -90.0   0.99464
   -  3        2.403 /_  120.1    1.0005     4.160        3-1     4.1285 /_  149.8   0.99242
55 .. 1         2.36 /_    0.0   0.98259     4.160        1-2     4.1153 /_   30.0   0.98927
   -  2       2.3851 /_ -120.3   0.99305     4.160        2-3     4.1374 /_  -90.0   0.99457
   -  3       2.4032 /_  120.1    1.0006     4.160        3-1     4.1283 /_  149.8   0.99238
57 .. 1       2.3633 /_    0.0   0.98397     4.160        1-2     4.1183 /_   30.0   0.98997
   -  2       2.3846 /_ -120.3   0.99285     4.160        2-3     4.1382 /_  -90.0   0.99476
   -  3        2.403 /_  120.1    1.0005     4.160        3-1     4.1292 /_  149.8    0.9926
56 .. 1       2.3599 /_    0.0   0.98256     4.160        1-2     4.1152 /_   30.0   0.98923
   -  2       2.3847 /_ -120.3   0.99287     4.160        2-3     4.1371 /_  -90.0   0.99449
   -  3       2.4034 /_  120.1    1.0007     4.160        3-1     4.1283 /_  149.8   0.99238
58 .. 2        2.383 /_ -120.3   0.99219     4.160
60 .. 1       2.3696 /_    0.1   0.98658     4.160        1-2     4.1243 /_   30.1   0.99141
   -  2       2.3855 /_ -120.2   0.99323     4.160        2-3      4.141 /_  -90.0   0.99544
   -  3       2.4017 /_  120.0   0.99996     4.160        3-1     4.1306 /_  149.9   0.99293
59 .. 2       2.3822 /_ -120.3   0.99186     4.160
61 .. 1       2.3696 /_    0.1   0.98658     4.160        1-2     4.1243 /_   30.1   0.99141
   -  2       2.3855 /_ -120.2   0.99323     4.160        2-3      4.141 /_  -90.0   0.99544
   -  3       2.4017 /_  120.0   0.99996     4.160        3-1     4.1306 /_  149.9   0.99293
62 .. 1       2.3737 /_    0.1   0.98832     4.160        1-2     4.1281 /_   30.1   0.99233
   -  2       2.3869 /_ -120.2   0.99382     4.160        2-3     4.1421 /_  -90.0    0.9957
   -  3       2.4005 /_  120.0   0.99946     4.160        3-1     4.1332 /_  149.9   0.99357
63 .. 1       2.3765 /_    0.1   0.98946     4.160        1-2     4.1308 /_   30.1   0.99299
   -  2       2.3878 /_ -120.1   0.99417     4.160        2-3     4.1435 /_  -90.0   0.99603
   -  3       2.4007 /_  120.0   0.99955     4.160        3-1     4.1357 /_  149.9   0.99416
64 .. 1       2.3841 /_    0.1   0.99265     4.160        1-2     4.1374 /_   30.0   0.99458
   -  2        2.389 /_ -120.1   0.99469     4.160        2-3     4.1462 /_  -90.0   0.99668
   -  3       2.4008 /_  120.0   0.99958     4.160        3-1     4.1419 /_  149.9   0.99566
65 .. 1       2.3926 /_    0.0    0.9962     4.160        1-2     4.1482 /_   30.0   0.99716
   -  2       2.3952 /_ -120.0   0.99728     4.160        2-3     4.1521 /_  -90.0    0.9981
   -  3          2.4 /_  120.0   0.99925     4.160        3-1     4.1495 /_  150.0   0.99747
66 .. 1        2.401 /_    0.0   0.99968     4.160        1-2     4.1588 /_   30.0   0.99971
   -  2       2.4012 /_ -120.0   0.99976     4.160        2-3      4.159 /_  -90.0   0.99977
   -  3       2.4012 /_  120.0   0.99977     4.160        3-1     4.1589 /_  150.0   0.99973
67 .. 1   9.4997E-120 /_  119.1 3.9553E-120     4.160        1-2   5.9E-120 /_ -152.0 1.4183E-120
   -  2   1.1084E-119 /_   87.0 4.615E-120     4.160        2-3 3.1811E-119 /_   97.2 7.6469E-120
   -  3   2.0995E-119 /_  -77.4 8.7416E-120     4.160        3-1 3.0223E-119 /_  -72.3 7.2651E-120
68 .. 1   9.4847E-120 /_  119.1 3.949E-120     4.160
72 .. 1   9.5187E-120 /_  119.2 3.9632E-120     4.160        1-2 5.914E-120 /_ -152.1 1.4216E-120
   -  2   1.1092E-119 /_   87.0 4.6183E-120     4.160        2-3 3.1833E-119 /_   97.2 7.6522E-120
   -  3   2.1009E-119 /_  -77.4 8.7473E-120     4.160        3-1 3.0252E-119 /_  -72.2 7.2722E-120
97 .. 1   9.4917E-120 /_  119.1 3.9519E-120     4.160        1-2 5.8924E-120 /_ -152.0 1.4164E-120
   -  2   1.1078E-119 /_   87.0 4.6125E-120     4.160        2-3 3.1791E-119 /_   97.2 7.6421E-120
   -  3   2.0981E-119 /_  -77.4 8.7355E-120     4.160        3-1 3.0201E-119 /_  -72.3 7.2598E-120
69 .. 1   9.4676E-120 /_  119.1 3.9419E-120     4.160
70 .. 1   9.4554E-120 /_  119.0 3.9368E-120     4.160
71 .. 1   9.4486E-120 /_  119.0 3.934E-120     4.160
73 .. 3   2.0963E-119 /_  -77.4 8.7283E-120     4.160
76 .. 1   9.525E-120 /_  119.3 3.9658E-120     4.160        1-2 5.9253E-120 /_ -152.1 1.4243E-120
   -  2   1.1093E-119 /_   87.0 4.6188E-120     4.160        2-3 3.1858E-119 /_   97.3 7.6583E-120
   -  3   2.1035E-119 /_  -77.3 8.7582E-120     4.160        3-1 3.0285E-119 /_  -72.2 7.28E-120
74 .. 3   2.0925E-119 /_  -77.5 8.7123E-120     4.160
75 .. 3   2.0903E-119 /_  -77.5 8.7031E-120     4.160
77 .. 1   9.5311E-120 /_  119.2 3.9683E-120     4.160        1-2 5.9343E-120 /_ -152.2 1.4265E-120
   -  2   1.1103E-119 /_   86.9 4.6227E-120     4.160        2-3 3.1888E-119 /_   97.2 7.6653E-120
   -  3   2.1055E-119 /_  -77.4 8.7666E-120     4.160        3-1 3.031E-119 /_  -72.3 7.286E-120
N2 .. 1   9.5249E-120 /_  119.3 3.9658E-120     4.160        1-2 5.9252E-120 /_ -152.1 1.4243E-120
   -  2   1.1093E-119 /_   87.0 4.6187E-120     4.160        2-3 3.1858E-119 /_   97.3 7.6582E-120
   -  3   2.1035E-119 /_  -77.3 8.7582E-120     4.160        3-1 3.0285E-119 /_  -72.2 7.28E-120
86 .. 1   9.506E-120 /_  119.2 3.9579E-120     4.160        1-2 5.9232E-120 /_ -152.3 1.4238E-120
   -  2   1.1066E-119 /_   86.8 4.6074E-120     4.160        2-3 3.1844E-119 /_   97.2 7.6548E-120
   -  3   2.1053E-119 /_  -77.4 8.7658E-120     4.160        3-1 3.0287E-119 /_  -72.2 7.2805E-120
78 .. 1   9.5332E-120 /_  119.2 3.9692E-120     4.160        1-2 5.9364E-120 /_ -152.2 1.427E-120
   -  2   1.1107E-119 /_   86.9 4.6243E-120     4.160        2-3 3.1896E-119 /_   97.2 7.6673E-120
   -  3   2.106E-119 /_  -77.4 8.7684E-120     4.160        3-1 3.0316E-119 /_  -72.3 7.2875E-120
79 .. 1   9.5304E-120 /_  119.2 3.9681E-120     4.160        1-2 5.9349E-120 /_ -152.2 1.4267E-120
   -  2   1.1106E-119 /_   86.9 4.6242E-120     4.160        2-3 3.1896E-119 /_   97.2 7.6673E-120
   -  3   2.106E-119 /_  -77.4 8.7687E-120     4.160        3-1 3.0315E-119 /_  -72.3 7.2872E-120
80 .. 1   9.5495E-120 /_  119.2 3.976E-120     4.160        1-2 5.9497E-120 /_ -152.2 1.4302E-120
   -  2   1.1125E-119 /_   86.9 4.6321E-120     4.160        2-3 3.1936E-119 /_   97.1 7.6769E-120
   -  3   2.1079E-119 /_  -77.5 8.7764E-120     4.160        3-1 3.0349E-119 /_  -72.3 7.2953E-120
81 .. 1   9.5567E-120 /_  119.2 3.979E-120     4.160        1-2 5.9543E-120 /_ -152.2 1.4313E-120
   -  2   1.1135E-119 /_   86.9 4.6361E-120     4.160        2-3 3.1952E-119 /_   97.1 7.6808E-120
   -  3   2.1085E-119 /_  -77.6 8.7789E-120     4.160        3-1 3.036E-119 /_  -72.4 7.2982E-120
82 .. 1   9.5617E-120 /_  119.2 3.9811E-120     4.160        1-2 5.9602E-120 /_ -152.2 1.4327E-120
   -  2   1.1146E-119 /_   86.8 4.6406E-120     4.160        2-3 3.1982E-119 /_   97.0 7.6879E-120
   -  3   2.1104E-119 /_  -77.6 8.7867E-120     4.160        3-1 3.0384E-119 /_  -72.4 7.3038E-120
84 .. 3   2.1029E-119 /_  -77.6 8.7555E-120     4.160
83 .. 1   9.5697E-120 /_  119.1 3.9844E-120     4.160        1-2 5.9678E-120 /_ -152.2 1.4346E-120
   -  2   1.1157E-119 /_   86.8 4.6453E-120     4.160        2-3 3.2011E-119 /_   97.0 7.695E-120
   -  3   2.1122E-119 /_  -77.7 8.7941E-120     4.160        3-1 3.0409E-119 /_  -72.4 7.3098E-120
85 .. 3   2.1003E-119 /_  -77.7 8.7446E-120     4.160
87 .. 1   9.4949E-120 /_  119.1 3.9533E-120     4.160        1-2 5.9234E-120 /_ -152.4 1.4239E-120
   -  2   1.1053E-119 /_   86.7 4.602E-120     4.160        2-3 3.1837E-119 /_   97.2 7.6532E-120
   -  3   2.1063E-119 /_  -77.4 8.7696E-120     4.160        3-1 3.0286E-119 /_  -72.3 7.2804E-120
88 .. 1   9.4942E-120 /_  119.1 3.953E-120     4.160
89 .. 1   9.4888E-120 /_  119.1 3.9507E-120     4.160        1-2 5.9261E-120 /_ -152.5 1.4246E-120
   -  2   1.1047E-119 /_   86.7 4.5997E-120     4.160        2-3 3.1836E-119 /_   97.2 7.653E-120
   -  3   2.1068E-119 /_  -77.4 8.7717E-120     4.160        3-1 3.0285E-119 /_  -72.3 7.2801E-120
90 .. 2   1.1046E-119 /_   86.7 4.5992E-120     4.160
91 .. 1   9.4843E-120 /_  119.1 3.9489E-120     4.160        1-2 5.9255E-120 /_ -152.5 1.4244E-120
   -  2   1.1042E-119 /_   86.7 4.5974E-120     4.160        2-3 3.1836E-119 /_   97.1 7.6528E-120
   -  3   2.1072E-119 /_  -77.4 8.7734E-120     4.160        3-1 3.0284E-119 /_  -72.3 7.2798E-120
92 .. 3   2.1069E-119 /_  -77.5 8.7723E-120     4.160
93 .. 1    9.48E-120 /_  119.1 3.9471E-120     4.160        1-2 5.9243E-120 /_ -152.5 1.4241E-120
   -  2   1.1038E-119 /_   86.7 4.5959E-120     4.160        2-3 3.1833E-119 /_   97.1 7.6523E-120
   -  3   2.1074E-119 /_  -77.4 8.7744E-120     4.160        3-1 3.0283E-119 /_  -72.3 7.2795E-120
94 .. 1   9.4732E-120 /_  119.1 3.9442E-120     4.160
95 .. 1   9.478E-120 /_  119.1 3.9463E-120     4.160        1-2 5.9249E-120 /_ -152.5 1.4242E-120
   -  2   1.1034E-119 /_   86.7 4.5941E-120     4.160        2-3 3.183E-119 /_   97.1 7.6515E-120
   -  3   2.1076E-119 /_  -77.4 8.7752E-120     4.160        3-1 3.0283E-119 /_  -72.3 7.2795E-120
96 .. 2   1.1031E-119 /_   86.7 4.5929E-120     4.160
98 .. 1   9.4899E-120 /_  119.1 3.9512E-120     4.160        1-2 5.8905E-120 /_ -152.0 1.416E-120
   -  2   1.1076E-119 /_   87.0 4.6116E-120     4.160        2-3 3.1784E-119 /_   97.2 7.6405E-120
   -  3   2.0976E-119 /_  -77.5 8.7335E-120     4.160        3-1 3.0194E-119 /_  -72.3 7.2583E-120
99 .. 1   9.4931E-120 /_  119.1 3.9525E-120     4.160        1-2 5.8906E-120 /_ -152.0 1.416E-120
   -  2   1.1072E-119 /_   87.0 4.61E-120     4.160        2-3 3.1771E-119 /_   97.2 7.6372E-120
   -  3   2.0965E-119 /_  -77.5 8.729E-120     4.160        3-1 3.0185E-119 /_  -72.3 7.2561E-120
100 . 1   9.4968E-120 /_  119.1 3.9541E-120     4.160        1-2  5.89E-120 /_ -152.0 1.4159E-120
   -  2   1.1075E-119 /_   87.0 4.611E-120     4.160        2-3 3.1766E-119 /_   97.1 7.6361E-120
   -  3   2.0957E-119 /_  -77.5 8.7256E-120     4.160        3-1 3.018E-119 /_  -72.3 7.2547E-120
197 . 1   9.4917E-120 /_  119.1 3.9519E-120     4.160        1-2 5.8924E-120 /_ -152.0 1.4164E-120
   -  2   1.1078E-119 /_   87.0 4.6125E-120     4.160        2-3 3.1791E-119 /_   97.2 7.6421E-120
   -  3   2.0981E-119 /_  -77.4 8.7355E-120     4.160        3-1 3.0201E-119 /_  -72.3 7.2598E-120
101 . 1   9.4854E-120 /_  119.1 3.9493E-120     4.160        1-2 5.8864E-120 /_ -152.0 1.415E-120
   -  2   1.1074E-119 /_   87.0 4.6109E-120     4.160        2-3 3.1777E-119 /_   97.2 7.6387E-120
   -  3   2.097E-119 /_  -77.5 8.7311E-120     4.160        3-1 3.0185E-119 /_  -72.3 7.2559E-120
102 . 3   2.0939E-119 /_  -77.5 8.7182E-120     4.160
105 . 1   9.4698E-120 /_  119.0 3.9428E-120     4.160        1-2 5.881E-120 /_ -151.9 1.4137E-120
   -  2   1.1065E-119 /_   86.9 4.607E-120     4.160        2-3 3.1772E-119 /_   97.2 7.6375E-120
   -  3   2.0977E-119 /_  -77.4 8.734E-120     4.160        3-1 3.0179E-119 /_  -72.3 7.2546E-120
103 . 3   2.0903E-119 /_  -77.5 8.7033E-120     4.160
104 . 3   2.0865E-119 /_  -77.6 8.6873E-120     4.160
106 . 2   1.1052E-119 /_   86.9 4.6015E-120     4.160
108 . 1   9.4558E-120 /_  118.9 3.937E-120     4.160        1-2 5.8735E-120 /_ -151.9 1.4119E-120
   -  2   1.1063E-119 /_   86.9 4.6062E-120     4.160        2-3 3.1772E-119 /_   97.2 7.6375E-120
   -  3   2.0981E-119 /_  -77.4 8.7355E-120     4.160        3-1 3.0172E-119 /_  -72.4 7.2529E-120
107 . 2   1.1035E-119 /_   86.8 4.5945E-120     4.160
109 . 1   9.4169E-120 /_  118.8 3.9208E-120     4.160
110 . 1   9.3983E-120 /_  118.8 3.9131E-120     4.160
111 . 1   9.3912E-120 /_  118.8 3.9101E-120     4.160
112 . 1   9.3922E-120 /_  118.8 3.9105E-120     4.160
113 . 1   9.3727E-120 /_  118.8 3.9024E-120     4.160
114 . 1   9.3687E-120 /_  118.7 3.9007E-120     4.160
135 . 1       2.3936 /_   -0.1   0.99659     4.160        1-2     4.1483 /_   29.9   0.99718
   -  2       2.3958 /_ -120.1   0.99749     4.160        2-3     4.1518 /_  -90.0   0.99804
   -  3       2.4012 /_  120.0   0.99976     4.160        3-1     4.1543 /_  149.9   0.99863
152 . 1        2.359 /_    0.0   0.98219     4.160        1-2     4.1147 /_   30.0   0.98912
   -  2       2.3861 /_ -120.3   0.99347     4.160        2-3     4.1379 /_  -90.0   0.99468
   -  3       2.4029 /_  120.2    1.0005     4.160        3-1     4.1281 /_  149.7   0.99232
160R  1   9.4997E-120 /_  119.1 3.9553E-120     4.160        1-2   5.9E-120 /_ -152.0 1.4183E-120
   -  2   1.1084E-119 /_   87.0 4.615E-120     4.160        2-3 3.1811E-119 /_   97.2 7.6469E-120
   -  3   2.0995E-119 /_  -77.4 8.7416E-120     4.160        3-1 3.0223E-119 /_  -72.3 7.2651E-120
150R  1       2.4168 /_    0.0    1.0062     4.160        1-2      4.186 /_   30.0    1.0062
   -  2       2.4168 /_ -120.0    1.0062     4.160        2-3      4.186 /_  -90.0    1.0062
   -  3       2.4168 /_  120.0    1.0062     4.160        3-1      4.186 /_  150.0    1.0062
160 . 1   8.6361E-120 /_  119.1 3.5957E-120     4.160        1-2 5.3637E-120 /_ -152.0 1.2893E-120
   -  2   1.0077E-119 /_   87.0 4.1955E-120     4.160        2-3 2.8919E-119 /_   97.2 6.9517E-120
   -  3   1.9087E-119 /_  -77.4 7.9469E-120     4.160        3-1 2.7475E-119 /_  -72.3 6.6046E-120
